Circuit: * C:\Users\IGE\Nextcloud\Documents_de_Olivier\hobby\radio amateur\projets\uSDX-mOnO\PA\Simulation\usdx_mOnO_PA_IRF530.asc

Direct Newton iteration for .op point succeeded.

Date: Tue Apr 05 14:47:52 2022
Total elapsed time: 10.256 seconds.

tnom = 27
temp = 27
method = modified trap
totiter = 3174158
traniter = 3174153
tranpoints = 900432
accept = 588440
rejected = 311992
matrix size = 16
fillins = 4
solver = Normal
Matrix Compiler1: 1.23 KB object code size  0.2/0.2/[0.1]
Matrix Compiler2: 1.33 KB object code size  0.1/0.2/[0.1]

